src/examples/case14_twoarea/two_area_02pulim_1_4/res_branch_2.csv
branch,from_bus,to_bus,X,B,G,Bfr,Bto,p_from,p_to,q_from,q_to,p_loss,q_loss,s_from,s_to,rate_a,ang_deg,angmin,angmax
7,4,5,0.035091666666666674,-24.893929112009626,9.470452253013397,0.0,0.0,-0.11439281597015995,0.11497882270621164,0.16405576350265272,-0.1625153924879709,0.0005860067360516918,0.001540371014681824,0.20000002471005146,0.19907632321907515,0.2,-0.3919187318145895,-60.0001403060998,60.0001403060998
4,2,4,0.14693333333333336,-5.885295774936327,2.3275490300468458,0.014166666666666668,0.014166666666666668,0.097841098419188,-0.09719635711407912,-0.037092154803160735,0.012846858404327604,0.0006447413051088868,-0.024245296398833133,0.10463607641638172,0.09804169320808592,0.2,0.9899370423771725,-60.0001403060998,60.0001403060998
2,1,5,0.18586666666666668,-4.960987561041088,1.4421206487968972,0.0205,0.0205,0.10997040733179228,-0.10922213806107088,0.0075947132712421974,-0.04247287314435884,0.0007482692707213995,-0.03487815987311664,0.11023234624370785,0.11718967700172411,0.2,1.1922821033279902,-60.0001403060998,60.0001403060998
3,2,3,0.164975,-5.606663082452164,1.5969516487008768,0.01825,0.01825,0.19997420368857358,-0.1979007356480321,0.003213698572341089,-0.028901709798991992,0.002073468040541482,-0.025688011226650903,0.20000002499848088,0.20000002499834202,0.2,2.0339993842832533,-60.0001403060998,60.0001403060998
5,2,5,0.14490000000000003,-5.977892318521822,2.3494890789497425,0.014416666666666668,0.014416666666666668,0.07145218864870252,-0.07112013830420996,0.0020051691217002564,-0.027371429120456,0.0003320503444925599,-0.025366259998755743,0.07148031873107726,0.07620544078021005,0.2,0.598018310562583,-60.0001403060998,60.0001403060998
6,3,4,0.142525,-5.746114879729376,2.701611353030454,0.005333333333333334,0.005333333333333334,-0.12089925435339376,0.12200930888913097,-0.016851883804619806,0.009599855778364,0.0011100545357372177,-0.007252028026255807,0.12206807809976779,0.12238639093693694,0.2,-1.044062341906081,-60.0001403060998,60.0001403060998
1,1,2,0.04930833333333334,-17.566853542948998,6.904423626750412,0.022000000000000002,0.022000000000000002,0.19844964199867207,-0.19762031163817795,-0.007594723264195468,-0.030760728659424478,0.0008293303604941238,-0.03835545192361994,0.19859491491692535,0.2000000249990717,0.2,0.5942637927654072,-60.0001403060998,60.0001403060998
